version 2
1
9
.tran 500m 10 0{return}.kicad adjustpaths{return}.save all{return}.probe alli
3
2
I(R2)
 
1
V(Net-_D1-A_)
 
1
V(Net-_D1-K_)
 
